!- Linux Line endings 

Version,
    9.3;                      !- Version Identifier

SimulationControl,
    Yes,                      !- Do Zone Sizing Calculation
    Yes,                      !- Do System Sizing Calculation
    Yes,                      !- Do Plant Sizing Calculation
    No,                       !- Run Simulation for Sizing Periods
    Yes;                      !- Run Simulation for Weather File Run Periods

Building,
    Medium Office,            !- Name
    0,                        !- North Axis
    City,                     !- Terrain
    0.04,                     !- Loads Convergence Tolerance Value
    0.2,                      !- Temperature Convergence Tolerance Value
    FullInteriorAndExterior,    !- Solar Distribution
    25,                       !- Maximum Number of Warmup Days
    6;                        !- Minimum Number of Warmup Days

ShadowCalculation,
    PolygonClipping,          !- Shading Calculation Method
    Periodic,                 !- Shading Calculation Update Frequency Method
    30;                       !- Shading Calculation Update Frequency

SurfaceConvectionAlgorithm:Inside,
    TARP;                     !- Algorithm

SurfaceConvectionAlgorithm:Outside,
    TARP;                     !- Algorithm

HeatBalanceAlgorithm,
    ConductionTransferFunction;    !- Algorithm

Timestep,
    4;                        !- Number of Timesteps per Hour

Site:Location,
    Denver-Aurora-Buckley.AFB_CO_USA WMO=724695,    !- Name
    39.72,                    !- Latitude
    -104.75,                  !- Longitude
    -7,                       !- Time Zone
    1726;                     !- Elevation

SizingPeriod:DesignDay,
    Denver-Aurora-Buckley.AFB_CO_USA Ann Htg 99.6% Condns DB,    !- Name
    12,                       !- Month
    21,                       !- Day of Month
    WinterDesignDay,          !- Day Type
    -17.9,                    !- Maximum DryBulb Temperature
    0,                        !- Daily DryBulb Temperature Range
    DefaultMultipliers,       !- DryBulb Temperature Range Modifier Type
    ,                         !- DryBulb Temperature Range Modifier Day Schedule Name
    Wetbulb,                  !- Humidity Condition Type
    -17.9,                    !- Wetbulb or DewPoint at Maximum DryBulb
    ,                         !- Humidity Condition Day Schedule Name
    ,                         !- Humidity Ratio at Maximum DryBulb
    ,                         !- Enthalpy at Maximum DryBulb
    ,                         !- Daily WetBulb Temperature Range
    82237,                    !- Barometric Pressure
    2.5,                      !- Wind Speed
    180,                      !- Wind Direction
    No,                       !- Rain Indicator
    No,                       !- Snow Indicator
    No,                       !- Daylight Saving Time Indicator
    ASHRAEClearSky,           !- Solar Model Indicator
    ,                         !- Beam Solar Day Schedule Name
    ,                         !- Diffuse Solar Day Schedule Name
    ,                         !- ASHRAE Clear Sky Optical Depth for Beam Irradiance taub
    ,                         !- ASHRAE Clear Sky Optical Depth for Diffuse Irradiance taud
    0;                        !- Sky Clearness

SizingPeriod:DesignDay,
    Denver-Aurora-Buckley.AFB_CO_USA Ann Clg .4% Condns DB=>MWB,    !- Name
    7,                        !- Month
    21,                       !- Day of Month
    SummerDesignDay,          !- Day Type
    33.9,                     !- Maximum DryBulb Temperature
    14.8,                     !- Daily DryBulb Temperature Range
    DefaultMultipliers,       !- DryBulb Temperature Range Modifier Type
    ,                         !- DryBulb Temperature Range Modifier Day Schedule Name
    Wetbulb,                  !- Humidity Condition Type
    15,                       !- Wetbulb or DewPoint at Maximum DryBulb
    ,                         !- Humidity Condition Day Schedule Name
    ,                         !- Humidity Ratio at Maximum DryBulb
    ,                         !- Enthalpy at Maximum DryBulb
    ,                         !- Daily WetBulb Temperature Range
    82237,                    !- Barometric Pressure
    3.6,                      !- Wind Speed
    30,                       !- Wind Direction
    No,                       !- Rain Indicator
    No,                       !- Snow Indicator
    No,                       !- Daylight Saving Time Indicator
    ASHRAETau,                !- Solar Model Indicator
    ,                         !- Beam Solar Day Schedule Name
    ,                         !- Diffuse Solar Day Schedule Name
    0.423,                    !- ASHRAE Clear Sky Optical Depth for Beam Irradiance taub
    2.02;                     !- ASHRAE Clear Sky Optical Depth for Diffuse Irradiance taud

RunPeriod,
    Run Period 1,             !- Name
    7,                        !- Begin Month
    1,                        !- Begin Day of Month
    ,                         !- Begin Year
    7,                        !- End Month
    30,                       !- End Day of Month
    ,                         !- End Year
    Sunday,                   !- Day of Week for Start Day
    No,                       !- Use Weather File Holidays and Special Days
    No,                       !- Use Weather File Daylight Saving Period
    No,                       !- Apply Weekend Holiday Rule
    Yes,                      !- Use Weather File Rain Indicators
    Yes,                      !- Use Weather File Snow Indicators
    ;                         !- Treat Weather as Actual

RunPeriodControl:SpecialDays,
    New Years Day,            !- Name
    January 1,                !- Start Date
    1,                        !- Duration
    Holiday;                  !- Special Day Type

RunPeriodControl:SpecialDays,
    Veterans Day,             !- Name
    November 11,              !- Start Date
    1,                        !- Duration
    Holiday;                  !- Special Day Type

RunPeriodControl:SpecialDays,
    Christmas,                !- Name
    December 25,              !- Start Date
    1,                        !- Duration
    Holiday;                  !- Special Day Type

RunPeriodControl:SpecialDays,
    Independence Day,         !- Name
    July 4,                   !- Start Date
    1,                        !- Duration
    Holiday;                  !- Special Day Type

RunPeriodControl:SpecialDays,
    MLK Day,                  !- Name
    3rd Monday in January,    !- Start Date
    1,                        !- Duration
    Holiday;                  !- Special Day Type

RunPeriodControl:SpecialDays,
    Presidents Day,           !- Name
    3rd Monday in February,    !- Start Date
    1,                        !- Duration
    Holiday;                  !- Special Day Type

RunPeriodControl:SpecialDays,
    Memorial Day,             !- Name
    Last Monday in May,       !- Start Date
    1,                        !- Duration
    Holiday;                  !- Special Day Type

RunPeriodControl:SpecialDays,
    Labor Day,                !- Name
    1st Monday in September,    !- Start Date
    1,                        !- Duration
    Holiday;                  !- Special Day Type

RunPeriodControl:SpecialDays,
    Columbus Day,             !- Name
    2nd Monday in October,    !- Start Date
    1,                        !- Duration
    Holiday;                  !- Special Day Type

RunPeriodControl:SpecialDays,
    Thanksgiving,             !- Name
    4th Thursday in November,    !- Start Date
    1,                        !- Duration
    Holiday;                  !- Special Day Type

RunPeriodControl:DaylightSavingTime,
    2nd Sunday in March,      !- Start Date
    1st Sunday in November;    !- End Date

Site:GroundTemperature:BuildingSurface,
    20.53,                    !- January Ground Temperature
    20.49,                    !- February Ground Temperature
    20.52,                    !- March Ground Temperature
    20.53,                    !- April Ground Temperature
    20.6,                     !- May Ground Temperature
    22.84,                    !- June Ground Temperature
    23.26,                    !- July Ground Temperature
    23.35,                    !- August Ground Temperature
    23.38,                    !- September Ground Temperature
    21.14,                    !- October Ground Temperature
    20.76,                    !- November Ground Temperature
    20.61;                    !- December Ground Temperature

Site:WaterMainsTemperature,
    Correlation,              !- Calculation Method
    ,                         !- Temperature Schedule Name
    9.95,                     !- Annual Average Outdoor Air Temperature
    23.7;                     !- Maximum Difference In Monthly Average Outdoor Air Temperatures

ScheduleTypeLimits,
    Any Number;               !- Name

ScheduleTypeLimits,
    Fraction,                 !- Name
    0,                        !- Lower Limit Value
    1,                        !- Upper Limit Value
    Continuous;               !- Numeric Type

ScheduleTypeLimits,
    Temperature,              !- Name
    -60,                      !- Lower Limit Value
    200,                      !- Upper Limit Value
    Continuous;               !- Numeric Type

ScheduleTypeLimits,
    On/Off,                   !- Name
    0,                        !- Lower Limit Value
    1,                        !- Upper Limit Value
    Discrete;                 !- Numeric Type

ScheduleTypeLimits,
    Control Type,             !- Name
    0,                        !- Lower Limit Value
    4,                        !- Upper Limit Value
    Discrete;                 !- Numeric Type

ScheduleTypeLimits,
    Humidity,                 !- Name
    10,                       !- Lower Limit Value
    90,                       !- Upper Limit Value
    Continuous;               !- Numeric Type

ScheduleTypeLimits,
    Number;                   !- Name

Schedule:Compact,
    Exterior_lighting_schedule_a,    !- Name
    fraction,                 !- Schedule Type Limits Name
    Through:12/31,            !- Field 1
    For:AllDays,              !- Field 2
    Until: 06:00,             !- Field 3
    0,                        !- Field 4
    Until: 24:00,             !- Field 5
    1;                        !- Field 6

Schedule:Compact,
    Exterior_lighting_schedule_b,    !- Name
    fraction,                 !- Schedule Type Limits Name
    Through:12/31,            !- Field 1
    For:AllDays,              !- Field 2
    Until: 06:00,             !- Field 3
    0.7,                      !- Field 4
    Until: 24:00,             !- Field 5
    1;                        !- Field 6

Schedule:Compact,
    Exterior_lighting_schedule_a_IECC2015,    !- Name
    fraction,                 !- Schedule Type Limits Name
    Through:12/31,            !- Field 1
    For:Weekdays SummerDesignDay,    !- Field 2
    Until: 07:00,             !- Field 3
    0,                        !- Field 4
    Until: 22:00,             !- Field 5
    1,                        !- Field 6
    Until: 24:00,             !- Field 7
    0,                        !- Field 8
    For:Saturdays,            !- Field 9
    Until: 07:00,             !- Field 10
    0,                        !- Field 11
    Until: 18:00,             !- Field 12
    1,                        !- Field 13
    Until: 24:00,             !- Field 14
    0,                        !- Field 15
    For:AllOtherDays,         !- Field 16
    Until: 24:00,             !- Field 17
    0;                        !- Field 18

Schedule:Compact,
    Exterior_lighting_schedule_b_2016,    !- Name
    fraction,                 !- Schedule Type Limits Name
    Through:12/31,            !- Field 1
    For:AllDays,              !- Field 2
    Until: 06:00,             !- Field 3
    0.5,                      !- Field 4
    Until: 24:00,             !- Field 5
    1;                        !- Field 6

Schedule:Compact,
    Exterior_lighting_schedule_c_2016,    !- Name
    fraction,                 !- Schedule Type Limits Name
    Through:12/31,            !- Field 1
    For:AllDays,              !- Field 2
    Until: 06:00,             !- Field 3
    0.5,                      !- Field 4
    Until: 19:00,             !- Field 5
    1,                        !- Field 6
    Until: 24:00,             !- Field 7
    0.5;                      !- Field 8

Schedule:Compact,
    Hours_of_operation,       !- Name
    on/off,                   !- Schedule Type Limits Name
    Through: 12/31,           !- Field 1
    For: Weekdays SummerDesignDay,    !- Field 2
    Until: 06:00,             !- Field 3
    0.0,                      !- Field 4
    Until: 22:00,             !- Field 5
    1.0,                      !- Field 6
    Until: 24:00,             !- Field 7
    0.0,                      !- Field 8
    For: Saturday WinterDesignDay,    !- Field 9
    Until: 06:00,             !- Field 10
    0.0,                      !- Field 11
    Until: 18:00,             !- Field 12
    1.0,                      !- Field 13
    Until: 24:00,             !- Field 14
    0.0,                      !- Field 15
    For:Sunday Holidays AllOtherDays,    !- Field 16
    Until: 24:00,             !- Field 17
    0.0;                      !- Field 18

Schedule:Compact,
    ALWAYS_ON,                !- Name
    Fraction,                 !- Schedule Type Limits Name
    Through: 12/31,           !- Field 1
    For: AllDays,             !- Field 2
    Until: 24:00,             !- Field 3
    1.0;                      !- Field 4

Schedule:Compact,
    Exterior_Lgt_ALWAYS_ON,    !- Name
    Fraction,                 !- Schedule Type Limits Name
    Through: 12/31,           !- Field 1
    For: AllDays,             !- Field 2
    Until: 24:00,             !- Field 3
    1;                        !- Field 4

Schedule:Compact,
    Exterior_Lgt_189_1,       !- Name
    Fraction,                 !- Schedule Type Limits Name
    Through:12/31,            !- Field 1
    For:Weekdays,             !- Field 2
    Until:  9:00,             !- Field 3
    0.5,                      !- Field 4
    Until: 24:00,             !- Field 5
    1.0,                      !- Field 6
    For:Saturday,             !- Field 7
    Until:  9:00,             !- Field 8
    0.5,                      !- Field 9
    Until: 19:00,             !- Field 10
    1.0,                      !- Field 11
    Until: 24:00,             !- Field 12
    0.5,                      !- Field 13
    For:Sunday Holidays AllOtherDays,    !- Field 14
    Until:  9:00,             !- Field 15
    0.5,                      !- Field 16
    Until: 18:00,             !- Field 17
    1.0,                      !- Field 18
    Until: 24:00,             !- Field 19
    0.5;                      !- Field 20

Schedule:Compact,
    ALWAYS_OFF,               !- Name
    Fraction,                 !- Schedule Type Limits Name
    Through: 12/31,           !- Field 1
    For: AllDays,             !- Field 2
    Until: 24:00,             !- Field 3
    0.0;                      !- Field 4

Schedule:Compact,
    HVACOperationSchd,        !- Name
    on/off,                   !- Schedule Type Limits Name
    Through: 12/31,           !- Field 1
    For: Weekdays SummerDesignDay,    !- Field 2
    Until: 06:00,             !- Field 3
    0.0,                      !- Field 4
    Until: 22:00,             !- Field 5
    1.0,                      !- Field 6
    Until: 24:00,             !- Field 7
    0.0,                      !- Field 8
    For: Saturday WinterDesignDay,    !- Field 9
    Until: 06:00,             !- Field 10
    0.0,                      !- Field 11
    Until: 18:00,             !- Field 12
    1.0,                      !- Field 13
    Until: 24:00,             !- Field 14
    0.0,                      !- Field 15
    For:Sunday Holidays AllOtherDays,    !- Field 16
    Until: 24:00,             !- Field 17
    0.0;                      !- Field 18

Schedule:Compact,
    BLDG_LIGHT_SCH,           !- Name
    Fraction,                 !- Schedule Type Limits Name
    Through: 12/31,           !- Field 1
    For: Weekdays,            !- Field 2
    Until: 5:00,              !- Field 3
    0.05,                     !- Field 4
    Until: 6:00,              !- Field 5
    0.1,                      !- Field 6
    Until: 7:00,              !- Field 7
    0.08623256,               !- Field 8
    Until: 8:00,              !- Field 9
    0.25869768,               !- Field 10
    Until: 17:00,             !- Field 11
    0.77609304,               !- Field 12
    Until: 18:00,             !- Field 13
    0.4311628,                !- Field 14
    Until: 20:00,             !- Field 15
    0.25869768,               !- Field 16
    Until: 22:00,             !- Field 17
    0.17246512,               !- Field 18
    Until: 23:00,             !- Field 19
    0.08623256,               !- Field 20
    Until: 24:00,             !- Field 21
    0.04311628,               !- Field 22
    For: SummerDesignDay,     !- Field 23
    Until: 24:00,             !- Field 24
    1,                        !- Field 25
    For: Saturday,            !- Field 26
    Until: 6:00,              !- Field 27
    0.05,                     !- Field 28
    Until: 8:00,              !- Field 29
    0.08623256,               !- Field 30
    Until: 12:00,             !- Field 31
    0.25869768,               !- Field 32
    Until: 17:00,             !- Field 33
    0.12934884,               !- Field 34
    Until: 19:00,             !- Field 35
    0.04311628,               !- Field 36
    Until: 24:00,             !- Field 37
    0.05,                     !- Field 38
    For: WinterDesignDay,     !- Field 39
    Until: 24:00,             !- Field 40
    0,                        !- Field 41
    For: Sunday Holidays AllOtherDays,    !- Field 42
    Until: 6:00,              !- Field 43
    0.05,                     !- Field 44
    Until: 18:00,             !- Field 45
    0.04311628,               !- Field 46
    Until: 24:00,             !- Field 47
    0.05;                     !- Field 48

Schedule:Compact,
    BLDG_EQUIP_SCH,           !- Name
    Fraction,                 !- Schedule Type Limits Name
    Through: 12/31,           !- Field 1
    For: Weekdays,            !- Field 2
    Until: 06:00,             !- Field 3
    0.3076738408,             !- Field 4
    Until: 08:00,             !- Field 5
    0.381234796,              !- Field 6
    Until: 12:00,             !- Field 7
    0.857778291,              !- Field 8
    Until: 13:00,             !- Field 9
    0.762469592,              !- Field 10
    Until: 17:00,             !- Field 11
    0.857778291,              !- Field 12
    Until: 18:00,             !- Field 13
    0.476543495,              !- Field 14
    Until: 24:00,             !- Field 15
    0.381234796,              !- Field 16
    For: SummerDesignDay,     !- Field 17
    Until: 24:00,             !- Field 18
    1.0,                      !- Field 19
    For: Saturday,            !- Field 20
    Until: 06:00,             !- Field 21
    0.2307553806,             !- Field 22
    Until: 08:00,             !- Field 23
    0.381234796,              !- Field 24
    Until: 12:00,             !- Field 25
    0.476543495,              !- Field 26
    Until: 17:00,             !- Field 27
    0.3335804465,             !- Field 28
    Until: 19:00,             !- Field 29
    0.285926097,              !- Field 30
    Until: 24:00,             !- Field 31
    0.2307553806,             !- Field 32
    For: WinterDesignDay,     !- Field 33
    Until: 24:00,             !- Field 34
    0.0,                      !- Field 35
    For: Sunday Holidays AllOtherDays,    !- Field 36
    Until: 06:00,             !- Field 37
    0.2307553806,             !- Field 38
    Until: 18:00,             !- Field 39
    0.285926097,              !- Field 40
    Until: 24:00,             !- Field 41
    0.2307553806;             !- Field 42

Schedule:Compact,
    BLDG_OCC_SCH,             !- Name
    Fraction,                 !- Schedule Type Limits Name
    Through: 12/31,           !- Field 1
    For: Weekdays,            !- Field 2
    Until: 06:00,             !- Field 3
    0.0,                      !- Field 4
    Until: 07:00,             !- Field 5
    0.1,                      !- Field 6
    Until: 08:00,             !- Field 7
    0.2,                      !- Field 8
    Until: 12:00,             !- Field 9
    0.95,                     !- Field 10
    Until: 13:00,             !- Field 11
    0.5,                      !- Field 12
    Until: 17:00,             !- Field 13
    0.95,                     !- Field 14
    Until: 18:00,             !- Field 15
    0.3,                      !- Field 16
    Until: 22:00,             !- Field 17
    0.1,                      !- Field 18
    Until: 24:00,             !- Field 19
    0.05,                     !- Field 20
    For: SummerDesignDay,     !- Field 21
    Until: 06:00,             !- Field 22
    0.000000001,              !- Field 23
    Until: 22:00,             !- Field 24
    1.0,                      !- Field 25
    Until: 24:00,             !- Field 26
    0.05,                     !- Field 27
    For: Saturday,            !- Field 28
    Until: 06:00,             !- Field 29
    0.0,                      !- Field 30
    Until: 08:00,             !- Field 31
    0.1,                      !- Field 32
    Until: 12:00,             !- Field 33
    0.3,                      !- Field 34
    Until: 17:00,             !- Field 35
    0.1,                      !- Field 36
    Until: 19:00,             !- Field 37
    0.05,                     !- Field 38
    Until: 24:00,             !- Field 39
    0.0,                      !- Field 40
    For: WinterDesignDay,     !- Field 41
    Until: 24:00,             !- Field 42
    0.0,                      !- Field 43
    For:Sunday Holidays AllOtherDays,    !- Field 44
    Until: 06:00,             !- Field 45
    0.0,                      !- Field 46
    Until: 18:00,             !- Field 47
    0.05,                     !- Field 48
    Until: 24:00,             !- Field 49
    0.0;                      !- Field 50

Schedule:Compact,
    BLDG_ELEVATORS,           !- Name
    Fraction,                 !- Schedule Type Limits Name
    Through: 12/31,           !- Field 1
    For: SummerDesignDay,     !- Field 2
    Until: 24:00,             !- Field 3
    0.69,                     !- Field 4
    For: WinterDesignDay,     !- Field 5
    Until: 24:00,             !- Field 6
    0.0,                      !- Field 7
    For: Weekdays,            !- Field 8
    Until: 07:00,             !- Field 9
    0.0,                      !- Field 10
    Until: 08:00,             !- Field 11
    0.35,                     !- Field 12
    Until: 09:00,             !- Field 13
    0.69,                     !- Field 14
    Until: 10:00,             !- Field 15
    0.43,                     !- Field 16
    Until: 11:00,             !- Field 17
    0.37,                     !- Field 18
    Until: 12:00,             !- Field 19
    0.43,                     !- Field 20
    Until: 13:00,             !- Field 21
    0.58,                     !- Field 22
    Until: 14:00,             !- Field 23
    0.48,                     !- Field 24
    Until: 15:00,             !- Field 25
    0.37,                     !- Field 26
    Until: 16:00,             !- Field 27
    0.37,                     !- Field 28
    Until: 17:00,             !- Field 29
    0.46,                     !- Field 30
    Until: 18:00,             !- Field 31
    0.62,                     !- Field 32
    Until: 19:00,             !- Field 33
    0.12,                     !- Field 34
    Until: 20:00,             !- Field 35
    0.04,                     !- Field 36
    Until: 21:00,             !- Field 37
    0.04,                     !- Field 38
    Until: 24:00,             !- Field 39
    0.00,                     !- Field 40
    For: Saturday,            !- Field 41
    Until: 07:00,             !- Field 42
    0.0,                      !- Field 43
    Until: 08:00,             !- Field 44
    0.16,                     !- Field 45
    Until: 09:00,             !- Field 46
    0.14,                     !- Field 47
    Until: 10:00,             !- Field 48
    0.21,                     !- Field 49
    Until: 11:00,             !- Field 50
    0.18,                     !- Field 51
    Until: 12:00,             !- Field 52
    0.25,                     !- Field 53
    Until: 13:00,             !- Field 54
    0.21,                     !- Field 55
    Until: 14:00,             !- Field 56
    0.13,                     !- Field 57
    Until: 15:00,             !- Field 58
    0.08,                     !- Field 59
    Until: 16:00,             !- Field 60
    0.04,                     !- Field 61
    Until: 17:00,             !- Field 62
    0.05,                     !- Field 63
    Until: 18:00,             !- Field 64
    0.06,                     !- Field 65
    Until: 24:00,             !- Field 66
    0.00,                     !- Field 67
    For:Sunday Holidays AllOtherDays,    !- Field 68
    Until: 24:00,             !- Field 69
    0.0;                      !- Field 70

Schedule:Compact,
    ELEV_LIGHT_FAN_SCH_24_7,    !- Name
    Fraction,                 !- Schedule Type Limits Name
    Through: 12/31,           !- Field 1
    For: AllDays,             !- Field 2
    Until: 24:00,             !- Field 3
    1;                        !- Field 4

Schedule:Compact,
    ELEV_LIGHT_FAN_SCH_ADD_DF,    !- Name
    Fraction,                 !- Schedule Type Limits Name
    Through: 12/31,           !- Field 1
    For: SummerDesignDay,     !- Field 2
    Until: 24:00,             !- Field 3
    0.69,                     !- Field 4
    For: WinterDesignDay,     !- Field 5
    Until: 24:00,             !- Field 6
    0.0,                      !- Field 7
    For: Weekdays,            !- Field 8
    Until: 07:00,             !- Field 9
    0.0,                      !- Field 10
    Until: 08:00,             !- Field 11
    0.35,                     !- Field 12
    Until: 09:00,             !- Field 13
    0.69,                     !- Field 14
    Until: 10:00,             !- Field 15
    0.43,                     !- Field 16
    Until: 11:00,             !- Field 17
    0.37,                     !- Field 18
    Until: 12:00,             !- Field 19
    0.43,                     !- Field 20
    Until: 13:00,             !- Field 21
    0.58,                     !- Field 22
    Until: 14:00,             !- Field 23
    0.48,                     !- Field 24
    Until: 15:00,             !- Field 25
    0.37,                     !- Field 26
    Until: 16:00,             !- Field 27
    0.37,                     !- Field 28
    Until: 17:00,             !- Field 29
    0.46,                     !- Field 30
    Until: 18:00,             !- Field 31
    0.62,                     !- Field 32
    Until: 19:00,             !- Field 33
    0.12,                     !- Field 34
    Until: 20:00,             !- Field 35
    0.04,                     !- Field 36
    Until: 21:00,             !- Field 37
    0.04,                     !- Field 38
    Until: 24:00,             !- Field 39
    0.00,                     !- Field 40
    For: Saturday,            !- Field 41
    Until: 07:00,             !- Field 42
    0.0,                      !- Field 43
    Until: 08:00,             !- Field 44
    0.16,                     !- Field 45
    Until: 09:00,             !- Field 46
    0.14,                     !- Field 47
    Until: 10:00,             !- Field 48
    0.21,                     !- Field 49
    Until: 11:00,             !- Field 50
    0.18,                     !- Field 51
    Until: 12:00,             !- Field 52
    0.25,                     !- Field 53
    Until: 13:00,             !- Field 54
    0.21,                     !- Field 55
    Until: 14:00,             !- Field 56
    0.13,                     !- Field 57
    Until: 15:00,             !- Field 58
    0.08,                     !- Field 59
    Until: 16:00,             !- Field 60
    0.04,                     !- Field 61
    Until: 17:00,             !- Field 62
    0.05,                     !- Field 63
    Until: 18:00,             !- Field 64
    0.06,                     !- Field 65
    Until: 24:00,             !- Field 66
    0.00,                     !- Field 67
    For:Sunday Holidays AllOtherDays,    !- Field 68
    Until: 24:00,             !- Field 69
    0.0;                      !- Field 70

Schedule:Compact,
    BLDG_SWH_SCH,             !- Name
    Fraction,                 !- Schedule Type Limits Name
    Through: 12/31,           !- Field 1
    For: Weekdays SummerDesignDay,    !- Field 2
    Until: 05:00,             !- Field 3
    0.00,                     !- Field 4
    Until: 06:00,             !- Field 5
    0.00,                     !- Field 6
    Until: 07:00,             !- Field 7
    0.07,                     !- Field 8
    Until: 08:00,             !- Field 9
    0.19,                     !- Field 10
    Until: 09:00,             !- Field 11
    0.35,                     !- Field 12
    Until: 10:00,             !- Field 13
    0.38,                     !- Field 14
    Until: 11:00,             !- Field 15
    0.39,                     !- Field 16
    Until: 12:00,             !- Field 17
    0.47,                     !- Field 18
    Until: 13:00,             !- Field 19
    0.57,                     !- Field 20
    Until: 14:00,             !- Field 21
    0.54,                     !- Field 22
    Until: 15:00,             !- Field 23
    0.34,                     !- Field 24
    Until: 16:00,             !- Field 25
    0.33,                     !- Field 26
    Until: 17:00,             !- Field 27
    0.44,                     !- Field 28