  Version,9.3;

  Timestep,6;

  LifeCycleCost:Parameters,
    Life Cycle Cost Parameters,  !- Name
    EndOfYear,               !- Discounting Convention
    ConstantDollar,          !- Inflation Approach
    0.03,                    !- Real Discount Rate
    ,                        !- Nominal Discount Rate
    ,                        !- Inflation
    ,                        !- Base Date Month
    2011,                    !- Base Date Year
    ,                        !- Service Date Month
    2011,                    !- Service Date Year
    25,                      !- Length of Study Period in Years
    ,                        !- Tax rate
    None;                    !- Depreciation Method

  LifeCycleCost:UsePriceEscalation,
    U.S. Avg  Commercial-Electricity,  !- LCC Price Escalation Name
    Electricity,             !- Resource
    2011,                    !- Escalation Start Year
    January,                 !- Escalation Start Month
    0.9838,                  !- Year 1 Escalation
    0.9730,                  !- Year 2 Escalation
    0.9632,                  !- Year 3 Escalation
    0.9611,                  !- Year 4 Escalation
    0.9571,                  !- Year 5 Escalation
    0.9553,                  !- Year 6 Escalation
    0.9539,                  !- Year 7 Escalation
    0.9521,                  !- Year 8 Escalation
    0.9546,                  !- Year 9 Escalation
    0.9550,                  !- <none>
    0.9553,                  !- <none>
    0.9564,                  !- <none>
    0.9575,                  !- <none>
    0.9596,                  !- <none>
    0.9618,                  !- <none>
    0.9614,                  !- <none>
    0.9618,                  !- <none>
    0.9618,                  !- <none>
    0.9593,                  !- <none>
    0.9589,                  !- <none>
    0.9607,                  !- <none>
    0.9625,                  !- <none>
    0.9650,                  !- <none>
    0.9708,                  !- <none>
    0.9751,                  !- <none>
    0.9762,                  !- <none>
    0.9766,                  !- <none>
    0.9766,                  !- <none>
    0.9769,                  !- <none>
    0.9773;                  !- <none>

  LifeCycleCost:UsePriceEscalation,
    U.S. Avg  Commercial-Distillate Oil,  !- LCC Price Escalation Name
    FuelOilNo1,              !- Resource
    2011,                    !- Escalation Start Year
    January,                 !- Escalation Start Month
    0.9714,                  !- Year 1 Escalation
    0.9730,                  !- Year 2 Escalation
    0.9942,                  !- Year 3 Escalation
    1.0164,                  !- Year 4 Escalation
    1.0541,                  !- Year 5 Escalation
    1.0928,                  !- Year 6 Escalation
    1.1267,                  !- Year 7 Escalation
    1.1580,                  !- Year 8 Escalation
    1.1792,                  !- Year 9 Escalation
    1.1967,                  !- <none>
    1.2200,                  !- <none>
    1.2333,                  !- <none>
    1.2566,                  !- <none>
    1.2709,                  !- <none>
    1.2826,                  !- <none>
    1.2985,                  !- <none>
    1.3102,                  !- <none>
    1.3250,                  !- <none>
    1.3261,                  !- <none>
    1.3282,                  !- <none>
    1.3324,                  !- <none>
    1.3356,                  !- <none>
    1.3431,                  !- <none>
    1.3510,                  !- <none>
    1.3568,                  !- <none>
    1.3606,                  !- <none>
    1.3637,                  !- <none>
    1.3674,                  !- <none>
    1.3706,                  !- <none>
    1.3743;                  !- <none>

  LifeCycleCost:UsePriceEscalation,
    U.S. Avg  Commercial-Residual Oil,  !- LCC Price Escalation Name
    FuelOilNo2,              !- Resource
    2011,                    !- Escalation Start Year
    January,                 !- Escalation Start Month
    0.8469,                  !- Year 1 Escalation
    0.8257,                  !- Year 2 Escalation
    0.8681,                  !- Year 3 Escalation
    0.8988,                  !- Year 4 Escalation
    0.9289,                  !- Year 5 Escalation
    0.9604,                  !- Year 6 Escalation
    0.9897,                  !- Year 7 Escalation
    1.0075,                  !- Year 8 Escalation
    1.0314,                  !- Year 9 Escalation
    1.0554,                  !- <none>
    1.0861,                  !- <none>
    1.1278,                  !- <none>
    1.1497,                  !- <none>
    1.1620,                  !- <none>
    1.1743,                  !- <none>
    1.1852,                  !- <none>
    1.1948,                  !- <none>
    1.2037,                  !- <none>
    1.2071,                  !- <none>
    1.2119,                  !- <none>
    1.2139,                  !- <none>
    1.2194,                  !- <none>
    1.2276,                  !- <none>
    1.2365,                  !- <none>
    1.2420,                  !- <none>
    1.2461,                  !- <none>
    1.2509,                  !- <none>
    1.2550,                  !- <none>
    1.2591,                  !- <none>
    1.2638;                  !- <none>

  LifeCycleCost:UsePriceEscalation,
    U.S. Avg  Commercial-Natural gas,  !- LCC Price Escalation Name
    NaturalGas,              !- Resource
    2011,                    !- Escalation Start Year
    January,                 !- Escalation Start Month
    0.9823,                  !- Year 1 Escalation
    0.9557,                  !- Year 2 Escalation
    0.9279,                  !- Year 3 Escalation
    0.9257,                  !- Year 4 Escalation
    0.9346,                  !- Year 5 Escalation
    0.9412,                  !- Year 6 Escalation
    0.9512,                  !- Year 7 Escalation
    0.9645,                  !- Year 8 Escalation
    0.9856,                  !- Year 9 Escalation
    1.0067,                  !- <none>
    1.0222,                  !- <none>
    1.0410,                  !- <none>
    1.0610,                  !- <none>
    1.0787,                  !- <none>
    1.0942,                  !- <none>
    1.1098,                  !- <none>
    1.1220,                  !- <none>
    1.1308,                  !- <none>
    1.1386,                  !- <none>
    1.1486,                  !- <none>
    1.1619,                  !- <none>
    1.1763,                  !- <none>
    1.1918,                  !- <none>
    1.2118,                  !- <none>
    1.2284,                  !- <none>
    1.2439,                  !- <none>
    1.2605,                  !- <none>
    1.2772,                  !- <none>
    1.2938,                  !- <none>
    1.3115;                  !- <none>

  LifeCycleCost:UsePriceEscalation,
    U.S. Avg  Commercial-Coal,  !- LCC Price Escalation Name
    Coal,                    !- Resource
    2011,                    !- Escalation Start Year
    January,                 !- Escalation Start Month
    0.9970,                  !- Year 1 Escalation
    1.0089,                  !- Year 2 Escalation
    1.0089,                  !- Year 3 Escalation
    0.9941,                  !- Year 4 Escalation
    0.9941,                  !- Year 5 Escalation
    1.0000,                  !- Year 6 Escalation
    1.0030,                  !- Year 7 Escalation
    1.0059,                  !- Year 8 Escalation
    1.0089,                  !- Year 9 Escalation
    1.0119,                  !- <none>
    1.0148,                  !- <none>
    1.0178,                  !- <none>
    1.0208,                  !- <none>
    1.0267,                  !- <none>
    1.0297,                  !- <none>
    1.0356,                  !- <none>
    1.0415,                  !- <none>
    1.0534,                  !- <none>
    1.0564,                  !- <none>
    1.0593,                  !- <none>
    1.0653,                  !- <none>
    1.0712,                  !- <none>
    1.0742,                  !- <none>
    1.0801,                  !- <none>
    1.0831,                  !- <none>
    1.0831,                  !- <none>
    1.0861,                  !- <none>
    1.0890,                  !- <none>
    1.0920,                  !- <none>
    1.0950;                  !- <none>

  Building,
    Building 1,              !- Name
    ,                        !- North Axis {deg}
    ,                        !- Terrain
    ,                        !- Loads Convergence Tolerance Value {W}
    ,                        !- Temperature Convergence Tolerance Value {deltaC}
    ,                        !- Solar Distribution
    ,                        !- Maximum Number of Warmup Days
    ;                        !- Minimum Number of Warmup Days

  Zone,
    Amphitheater,  !- Name
    -0,                      !- Direction of Relative North {deg}
    11,                      !- X Origin {m}
    34,                      !- Y Origin {m}
    0,                       !- Z Origin {m}
    ,                        !- Type
    ,                        !- Multiplier
    ,                        !- Ceiling Height {m}
    ,                        !- Volume {m3}
    ,                        !- Floor Area {m2}
    TARP,                    !- Zone Inside Convection Algorithm
    DOE-2;                   !- Zone Outside Convection Algorithm

  BuildingSurface:Detailed,
    Surface 400,             !- Name
    Floor,                   !- Surface Type
    ExtSlabCarpet 4in ClimateZone 1-8,  !- Construction Name
    Amphitheater,  !- Zone Name
    Ground,                  !- Outside Boundary Condition
    ,                        !- Outside Boundary Condition Object
    NoSun,                   !- Sun Exposure
    NoWind,                  !- Wind Exposure
    ,                        !- View Factor to Ground
    ,                        !- Number of Vertices
    0,0,0,  !- X,Y,Z ==> Vertex 1 {m}
    0,-14,0,  !- X,Y,Z ==> Vertex 2 {m}
    -18,-14,0,  !- X,Y,Z ==> Vertex 3 {m}
    -18,0,0;  !- X,Y,Z ==> Vertex 4 {m}

  BuildingSurface:Detailed,
    Surface 401,             !- Name
    Wall,                    !- Surface Type
    Interior Wall,           !- Construction Name
    Amphitheater,  !- Zone Name
    Surface,                 !- Outside Boundary Condition
    Surface 30,              !- Outside Boundary Condition Object
    NoSun,                   !- Sun Exposure
    NoWind,                  !- Wind Exposure
    ,                        !- View Factor to Ground
    ,                        !- Number of Vertices
    0,-3,3,  !- X,Y,Z ==> Vertex 1 {m}
    0,-3,0,  !- X,Y,Z ==> Vertex 2 {m}
    0,0,0,  !- X,Y,Z ==> Vertex 3 {m}
    0,0,3;  !- X,Y,Z ==> Vertex 4 {m}

  BuildingSurface:Detailed,
    Surface 402,             !- Name
    Wall,                    !- Surface Type
    DOEE ExtWall Mass,       !- Construction Name
    Amphitheater,  !- Zone Name
    Outdoors,                !- Outside Boundary Condition
    ,                        !- Outside Boundary Condition Object
    SunExposed,              !- Sun Exposure
    WindExposed,             !- Wind Exposure
    ,                        !- View Factor to Ground
    ,                        !- Number of Vertices
    -18,-14,4,  !- X,Y,Z ==> Vertex 1 {m}
    -18,-14,0,  !- X,Y,Z ==> Vertex 2 {m}
    0,-14,0,  !- X,Y,Z ==> Vertex 3 {m}
    0,-14,4;  !- X,Y,Z ==> Vertex 4 {m}

  BuildingSurface:Detailed,
    Surface 403,             !- Name
    Wall,                    !- Surface Type
    DOEE ExtWall Mass,       !- Construction Name
    Amphitheater,  !- Zone Name
    Outdoors,                !- Outside Boundary Condition
    ,                        !- Outside Boundary Condition Object
    SunExposed,              !- Sun Exposure
    WindExposed,             !- Wind Exposure
    ,                        !- View Factor to Ground
    ,                        !- Number of Vertices
    -18,0,4,  !- X,Y,Z ==> Vertex 1 {m}
    -18,0,0,  !- X,Y,Z ==> Vertex 2 {m}
    -18,-14,0,  !- X,Y,Z ==> Vertex 3 {m}
    -18,-14,4;  !- X,Y,Z ==> Vertex 4 {m}

  BuildingSurface:Detailed,
    Surface 404,             !- Name
    Wall,                    !- Surface Type
    DOEE ExtWall Mass,       !- Construction Name
    Amphitheater,  !- Zone Name
    Outdoors,                !- Outside Boundary Condition
    ,                        !- Outside Boundary Condition Object
    SunExposed,              !- Sun Exposure
    WindExposed,             !- Wind Exposure
    ,                        !- View Factor to Ground
    ,                        !- Number of Vertices
    0,0,4,  !- X,Y,Z ==> Vertex 1 {m}
    0,0,0,  !- X,Y,Z ==> Vertex 2 {m}
    -18,0,0,  !- X,Y,Z ==> Vertex 3 {m}
    -18,0,4;  !- X,Y,Z ==> Vertex 4 {m}

  BuildingSurface:Detailed,
    Surface 405,             !- Name
    Ceiling,                 !- Surface Type
    Interior Ceiling,        !- Construction Name
    Amphitheater,  !- Zone Name
    Surface,                 !- Outside Boundary Condition
    Surface 406,             !- Outside Boundary Condition Object
    NoSun,                   !- Sun Exposure
    NoWind,                  !- Wind Exposure
    ,                        !- View Factor to Ground
    ,                        !- Number of Vertices
    0,-14,4,  !- X,Y,Z ==> Vertex 1 {m}
    0,0,4,  !- X,Y,Z ==> Vertex 2 {m}
    -18,0,4,  !- X,Y,Z ==> Vertex 3 {m}
    -18,-14,4;  !- X,Y,Z ==> Vertex 4 {m}

  BuildingSurface:Detailed,
    Surface 431,             !- Name
    Wall,                    !- Surface Type
    Interior Wall,           !- Construction Name
    Amphitheater,  !- Zone Name
    Surface,                 !- Outside Boundary Condition
    Surface 26,              !- Outside Boundary Condition Object
    NoSun,                   !- Sun Exposure
    NoWind,                  !- Wind Exposure
    ,                        !- View Factor to Ground
    ,                        !- Number of Vertices
    0,-14,3,  !- X,Y,Z ==> Vertex 1 {m}
    0,-14,0,  !- X,Y,Z ==> Vertex 2 {m}
    0,-11,0,  !- X,Y,Z ==> Vertex 3 {m}
    0,-11,3;  !- X,Y,Z ==> Vertex 4 {m}

  BuildingSurface:Detailed,
    Surface 433,             !- Name
    Wall,                    !- Surface Type
    Interior Wall,           !- Construction Name
    Amphitheater,  !- Zone Name
    Surface,                 !- Outside Boundary Condition
    Surface 336,             !- Outside Boundary Condition Object
    NoSun,                   !- Sun Exposure
    NoWind,                  !- Wind Exposure
    ,                        !- View Factor to Ground
    ,                        !- Number of Vertices
    0,-3,4,  !- X,Y,Z ==> Vertex 1 {m}
    0,-3,3,  !- X,Y,Z ==> Vertex 2 {m}
    0,0,3,  !- X,Y,Z ==> Vertex 3 {m}
    0,0,4;  !- X,Y,Z ==> Vertex 4 {m}

  BuildingSurface:Detailed,
    Surface 445,             !- Name
    Wall,                    !- Surface Type
    Interior Wall,           !- Construction Name
    Amphitheater,  !- Zone Name
    Surface,                 !- Outside Boundary Condition
    Surface 332,             !- Outside Boundary Condition Object
    NoSun,                   !- Sun Exposure
    NoWind,                  !- Wind Exposure
    ,                        !- View Factor to Ground
    ,                        !- Number of Vertices
    0,-14,4,  !- X,Y,Z ==> Vertex 1 {m}
    0,-14,3,  !- X,Y,Z ==> Vertex 2 {m}
    0,-11,3,  !- X,Y,Z ==> Vertex 3 {m}
    0,-11,4;  !- X,Y,Z ==> Vertex 4 {m}

  BuildingSurface:Detailed,
    Surface 447,             !- Name
    Wall,                    !- Surface Type
    Interior Wall,           !- Construction Name
    Amphitheater,  !- Zone Name
    Surface,                 !- Outside Boundary Condition
    Surface 428,             !- Outside Boundary Condition Object
    NoSun,                   !- Sun Exposure
    NoWind,                  !- Wind Exposure
    ,                        !- View Factor to Ground
    ,                        !- Number of Vertices
    0,-11,4,  !- X,Y,Z ==> Vertex 1 {m}
    0,-11,0,  !- X,Y,Z ==> Vertex 2 {m}
    0,-3,0,  !- X,Y,Z ==> Vertex 3 {m}
    0,-3,4;  !- X,Y,Z ==> Vertex 4 {m}

  ZoneControl:Thermostat,
    Amphitheater Thermostat,  !- Name
    Amphitheater,  !- Zone or ZoneList Name
    Amphitheater Thermostat Schedule,  !- Control Type Schedule Name
    ThermostatSetpoint:DualSetpoint,  !- Control 1 Object Type
    Thermostat Setpoint Dual Setpoint 1;  !- Control 1 Name

  Schedule:Compact,
    Amphitheater Thermostat Schedule,  !- Name
    Amphitheater Thermostat Schedule Type Limits,  !- Schedule Type Limits Name
    Through: 12/31,          !- Field 1
    For: AllDays,            !- Field 2
    Until: 24:00,4;          !- Field 3

  ScheduleTypeLimits,
    Amphitheater Thermostat Schedule Type Limits,  !- Name
    0,                       !- Lower Limit Value
    4,                       !- Upper Limit Value
    DISCRETE;                !- Numeric Type

  ThermostatSetpoint:DualSetpoint,
    Thermostat Setpoint Dual Setpoint 1,  !- Name
    DOEE HtgSetp,            !- Heating Setpoint Temperature Schedule Name
    DOEE ClgSetp;            !- Cooling Setpoint Temperature Schedule Name

  ScheduleTypeLimits,
    Temperature 3,           !- Name
    ,                        !- Lower Limit Value
    ,                        !- Upper Limit Value
    Continuous,              !- Numeric Type
    temperature;             !- Unit Type

  Schedule:Day:Interval,
    Large Office HtgSetp Default Schedule 1,  !- Name
    Temperature 3,           !- Schedule Type Limits Name
    No,                      !- Interpolate to Timestep
    24:00,                   !- Time 1
    22;                      !- Value Until Time 1

  Schedule:Day:Interval,
    Schedule Day 2,          !- Name
    Temperature 3,           !- Schedule Type Limits Name
    No,                      !- Interpolate to Timestep
    24:00,                   !- Time 1
    10;                      !- Value Until Time 1

  Schedule:Week:Daily,
    DOEE HtgSetp Week Rule - Jan1-Mar18,  !- Name
    Large Office HtgSetp Default Schedule 1,  !- Sunday Schedule:Day Name
    Large Office HtgSetp Default Schedule 1,  !- Monday Schedule:Day Name
    Large Office HtgSetp Default Schedule 1,  !- Tuesday Schedule:Day Name
    Large Office HtgSetp Default Schedule 1,  !- Wednesday Schedule:Day Name
    Large Office HtgSetp Default Schedule 1,  !- Thursday Schedule:Day Name
    Large Office HtgSetp Default Schedule 1,  !- Friday Schedule:Day Name
    Large Office HtgSetp Default Schedule 1,  !- Saturday Schedule:Day Name
    Large Office HtgSetp Default Schedule 1,  !- Holiday Schedule:Day Name
    Large Office HtgSetp Summer Design Day 1,  !- SummerDesignDay Schedule:Day Name
    Large Office HtgSetp Winter Design Day 1,  !- WinterDesignDay Schedule:Day Name
    Large Office HtgSetp Default Schedule 1,  !- CustomDay1 Schedule:Day Name
    Large Office HtgSetp Default Schedule 1;  !- CustomDay2 Schedule:Day Name

  Schedule:Week:Daily,
    DOEE HtgSetp Week Rule - Mar19-Mar25,  !- Name
    Large Office HtgSetp Default Schedule 1,  !- Sunday Schedule:Day Name
    Large Office HtgSetp Default Schedule 1,  !- Monday Schedule:Day Name
    Schedule Day 2,          !- Tuesday Schedule:Day Name
    Schedule Day 2,          !- Wednesday Schedule:Day Name
    Schedule Day 2,          !- Thursday Schedule:Day Name
    Schedule Day 2,          !- Friday Schedule:Day Name
    Schedule Day 2,          !- Saturday Schedule:Day Name
    Large Office HtgSetp Default Schedule 1,  !- Holiday Schedule:Day Name
    Large Office HtgSetp Summer Design Day 1,  !- SummerDesignDay Schedule:Day Name
    Large Office HtgSetp Winter Design Day 1,  !- WinterDesignDay Schedule:Day Name
    Large Office HtgSetp Default Schedule 1,  !- CustomDay1 Schedule:Day Name
    Large Office HtgSetp Default Schedule 1;  !- CustomDay2 Schedule:Day Name

  Schedule:Week:Daily,
    DOEE HtgSetp Week Rule - Mar26-Oct28,  !- Name
    Schedule Day 2,          !- Sunday Schedule:Day Name
    Schedule Day 2,          !- Monday Schedule:Day Name
    Schedule Day 2,          !- Tuesday Schedule:Day Name
    Schedule Day 2,          !- Wednesday Schedule:Day Name
    Schedule Day 2,          !- Thursday Schedule:Day Name
    Schedule Day 2,          !- Friday Schedule:Day Name
    Schedule Day 2,          !- Saturday Schedule:Day Name
    Large Office HtgSetp Default Schedule 1,  !- Holiday Schedule:Day Name
    Large Office HtgSetp Summer Design Day 1,  !- SummerDesignDay Schedule:Day Name
    Large Office HtgSetp Winter Design Day 1,  !- WinterDesignDay Schedule:Day Name
    Large Office HtgSetp Default Schedule 1,  !- CustomDay1 Schedule:Day Name
    Large Office HtgSetp Default Schedule 1;  !- CustomDay2 Schedule:Day Name

  Schedule:Week:Daily,
    DOEE HtgSetp Week Rule - Oct29-Nov4,  !- Name
    Schedule Day 2,          !- Sunday Schedule:Day Name
    Schedule Day 2,          !- Monday Schedule:Day Name
    Schedule Day 2,          !- Tuesday Schedule:Day Name
    Large Office HtgSetp Default Schedule 1,  !- Wednesday Schedule:Day Name
    Large Office HtgSetp Default Schedule 1,  !- Thursday Schedule:Day Name
    Large Office HtgSetp Default Schedule 1,  !- Friday Schedule:Day Name
    Large Office HtgSetp Default Schedule 1,  !- Saturday Schedule:Day Name
    Large Office HtgSetp Default Schedule 1,  !- Holiday Schedule:Day Name
    Large Office HtgSetp Summer Design Day 1,  !- SummerDesignDay Schedule:Day Name
    Large Office HtgSetp Winter Design Day 1,  !- WinterDesignDay Schedule:Day Name
    Large Office HtgSetp Default Schedule 1,  !- CustomDay1 Schedule:Day Name
    Large Office HtgSetp Default Schedule 1;  !- CustomDay2 Schedule:Day Name

  Schedule:Week:Daily,
    DOEE HtgSetp Week Rule - Nov5-Dec31,  !- Name
    Large Office HtgSetp Default Schedule 1,  !- Sunday Schedule:Day Name
    Large Office HtgSetp Default Schedule 1,  !- Monday Schedule:Day Name
    Large Office HtgSetp Default Schedule 1,  !- Tuesday Schedule:Day Name
    Large Office HtgSetp Default Schedule 1,  !- Wednesday Schedule:Day Name
    Large Office HtgSetp Default Schedule 1,  !- Thursday Schedule:Day Name
    Large Office HtgSetp Default Schedule 1,  !- Friday Schedule:Day Name
    Large Office HtgSetp Default Schedule 1,  !- Saturday Schedule:Day Name
    Large Office HtgSetp Default Schedule 1,  !- Holiday Schedule:Day Name
    Large Office HtgSetp Summer Design Day 1,  !- SummerDesignDay Schedule:Day Name
    Large Office HtgSetp Winter Design Day 1,  !- WinterDesignDay Schedule:Day Name
    Large Office HtgSetp Default Schedule 1,  !- CustomDay1 Schedule:Day Name
    Large Office HtgSetp Default Schedule 1;  !- CustomDay2 Schedule:Day Name

  Schedule:Year,
    DOEE HtgSetp,            !- Name
    Temperature 3,           !- Schedule Type Limits Name
    DOEE HtgSetp Week Rule - Jan1-Mar18,  !- Schedule:Week Name 1
    1,                       !- Start Month 1
    1,                       !- Start Day 1
    3,                       !- End Month 1
    18,                      !- End Day 1
    DOEE HtgSetp Week Rule - Mar19-Mar25,  !- Schedule:Week Name 2
    3,                       !- Start Month 2
    19,                      !- Start Day 2
    3,                       !- End Month 2
    25,                      !- End Day 2
    DOEE HtgSetp Week Rule - Mar26-Oct28,  !- Schedule:Week Name 3
    3,                       !- Start Month 3
    26,                      !- Start Day 3
    10,                      !- End Month 3
    28,                      !- End Day 3
    DOEE HtgSetp Week Rule - Oct29-Nov4,  !- Schedule:Week Name 4
    10,                      !- Start Month 4
    29,                      !- Start Day 4
    11,                      !- End Month 4
    4,                       !- End Day 4
    DOEE HtgSetp Week Rule - Nov5-Dec31,  !- Schedule:Week Name 5
    11,                      !- Start Month 5
    5,                       !- Start Day 5
    12,                      !- End Month 5
    31;                      !- End Day 5

  Schedule:Day:Interval,
    Large Office HtgSetp Summer Design Day 1,  !- Name
    Temperature 3,           !- Schedule Type Limits Name
    No,                      !- Interpolate to Timestep
    24:00,                   !- Time 1
    15.6;                    !- Value Until Time 1

  Schedule:Day:Interval,
    Large Office HtgSetp Winter Design Day 1,  !- Name
    Temperature 3,           !- Schedule Type Limits Name
    No,                      !- Interpolate to Timestep
    24:00,                   !- Time 1
    24;                      !- Value Until Time 1

  ScheduleTypeLimits,
    Temperature 5,           !- Name
    ,                        !- Lower Limit Value
    ,                        !- Upper Limit Value
    Continuous,              !- Numeric Type
    temperature;             !- Unit Type

  Schedule:Day:Interval,
    Large Office ClgSetp Default Schedule 1,  !- Name
    Temperature 5,           !- Schedule Type Limits Name
    No,                      !- Interpolate to Timestep
    24:00,                   !- Time 1
    40;                      !- Value Until Time 1

  Schedule:Day:Interval,
    Schedule Day 3,          !- Name
    Temperature 5,           !- Schedule Type Limits Name
    No,                      !- Interpolate to Timestep
    01:00,                   !- Time 1
    24,                      !- Value Until Time 1
    07:00,                   !- Time 2
    24,                      !- Value Until Time 2
    21:00,                   !- Time 3
    24,                      !- Value Until Time 3
    24:00,                   !- Time 4
    24;                      !- Value Until Time 4

  Schedule:Week:Daily,
    DOEE ClgSetp Week Rule - Jan1-Apr29,  !- Name
    Large Office ClgSetp Default Schedule 1,  !- Sunday Schedule:Day Name
    Large Office ClgSetp Default Schedule 1,  !- Monday Schedule:Day Name
    Large Office ClgSetp Default Schedule 1,  !- Tuesday Schedule:Day Name
    Large Office ClgSetp Default Schedule 1,  !- Wednesday Schedule:Day Name
    Large Office ClgSetp Default Schedule 1,  !- Thursday Schedule:Day Name
    Large Office ClgSetp Default Schedule 1,  !- Friday Schedule:Day Name
    Large Office ClgSetp Default Schedule 1,  !- Saturday Schedule:Day Name
    Large Office ClgSetp Default Schedule 1,  !- Holiday Schedule:Day Name
    Large Office ClgSetp Summer Design Day 1,  !- SummerDesignDay Schedule:Day Name
    Large Office ClgSetp Winter Design Day 1,  !- WinterDesignDay Schedule:Day Name
    Large Office ClgSetp Default Schedule 1,  !- CustomDay1 Schedule:Day Name
    Large Office ClgSetp Default Schedule 1;  !- CustomDay2 Schedule:Day Name

  Schedule:Week:Daily,
    DOEE ClgSetp Week Rule - Apr30-May6,  !- Name
    Large Office ClgSetp Default Schedule 1,  !- Sunday Schedule:Day Name
    Schedule Day 3,          !- Monday Schedule:Day Name
    Schedule Day 3,          !- Tuesday Schedule:Day Name
    Schedule Day 3,          !- Wednesday Schedule:Day Name
    Schedule Day 3,          !- Thursday Schedule:Day Name
    Schedule Day 3,          !- Friday Schedule:Day Name
    Schedule Day 3,          !- Saturday Schedule:Day Name
    Large Office ClgSetp Default Schedule 1,  !- Holiday Schedule:Day Name
    Large Office ClgSetp Summer Design Day 1,  !- SummerDesignDay Schedule:Day Name
    Large Office ClgSetp Winter Design Day 1,  !- WinterDesignDay Schedule:Day Name
    Large Office ClgSetp Default Schedule 1,  !- CustomDay1 Schedule:Day Name
    Large Office ClgSetp Default Schedule 1;  !- CustomDay2 Schedule:Day Name

  Schedule:Week:Daily,
    DOEE ClgSetp Week Rule - May7-Oct28,  !- Name
    Schedule Day 3,          !- Sunday Schedule:Day Name
    Schedule Day 3,          !- Monday Schedule:Day Name
    Schedule Day 3,          !- Tuesday Schedule:Day Name
    Schedule Day 3,          !- Wednesday Schedule:Day Name
    Schedule Day 3,          !- Thursday Schedule:Day Name
    Schedule Day 3,          !- Friday Schedule:Day Name
    Schedule Day 3,          !- Saturday Schedule:Day Name
    Large Office ClgSetp Default Schedule 1,  !- Holiday Schedule:Day Name
    Large Office ClgSetp Summer Design Day 1,  !- SummerDesignDay Schedule:Day Name
    Large Office ClgSetp Winter Design Day 1,  !- WinterDesignDay Schedule:Day Name
    Large Office ClgSetp Default Schedule 1,  !- CustomDay1 Schedule:Day Name
    Large Office ClgSetp Default Schedule 1;  !- CustomDay2 Schedule:Day Name

  Schedule:Week:Daily,
    DOEE ClgSetp Week Rule - Oct29-Nov4,  !- Name
    Schedule Day 3,          !- Sunday Schedule:Day Name
    Schedule Day 3,          !- Monday Schedule:Day Name
    Schedule Day 3,          !- Tuesday Schedule:Day Name
    Large Office ClgSetp Default Schedule 1,  !- Wednesday Schedule:Day Name
    Large Office ClgSetp Default Schedule 1,  !- Thursday Schedule:Day Name
    Large Office ClgSetp Default Schedule 1,  !- Friday Schedule:Day Name
    Large Office ClgSetp Default Schedule 1,  !- Saturday Schedule:Day Name
    Large Office ClgSetp Default Schedule 1,  !- Holiday Schedule:Day Name
    Large Office ClgSetp Summer Design Day 1,  !- SummerDesignDay Schedule:Day Name
    Large Office ClgSetp Winter Design Day 1,  !- WinterDesignDay Schedule:Day Name
    Large Office ClgSetp Default Schedule 1,  !- CustomDay1 Schedule:Day Name
    Large Office ClgSetp Default Schedule 1;  !- CustomDay2 Schedule:Day Name

  Schedule:Week:Daily,
    DOEE ClgSetp Week Rule - Nov5-Dec31,  !- Name
    Large Office ClgSetp Default Schedule 1,  !- Sunday Schedule:Day Name
    Large Office ClgSetp Default Schedule 1,  !- Monday Schedule:Day Name
    Large Office ClgSetp Default Schedule 1,  !- Tuesday Schedule:Day Name
    Large Office ClgSetp Default Schedule 1,  !- Wednesday Schedule:Day Name
    Large Office ClgSetp Default Schedule 1,  !- Thursday Schedule:Day Name
    Large Office ClgSetp Default Schedule 1,  !- Friday Schedule:Day Name
    Large Office ClgSetp Default Schedule 1,  !- Saturday Schedule:Day Name